21
[/home/surajit/SURE/Arghya/publish/Data/data_workflows-master-3c7a0808d1ac395ecf485adb2c1f59b1a61b30fc/qm9_g4mp2/tmp/extracted/output/dsgdb9nsd_112769.log: Geometry 4]
C     -3.1434500000   -0.2311230000   -0.3475910000
C     -1.8816510000    0.5567850000    0.0215470000
C     -0.7863500000   -0.3388750000    0.5771680000
C     -0.0540640000   -1.3324640000   -0.3617180000
N      1.2075340000   -1.0089950000    0.3292960000
C      2.4562340000   -1.0064730000   -0.4046710000
C      0.6410610000    0.2417400000    0.8743700000
C      0.9606820000    1.4565250000    0.1074850000
N      1.2436730000    2.3924480000   -0.5108310000
H     -3.5583480000   -0.7502150000    0.5234350000
H     -3.9184870000    0.4325970000   -0.7412970000
H     -2.9322670000   -0.9851810000   -1.1135930000
H     -1.5083010000    1.0939450000   -0.8577050000
H     -2.1307020000    1.3244490000    0.7652620000
H     -1.1343100000   -0.8552880000    1.4761980000
H     -0.3345330000   -2.3896460000   -0.3213610000
H     -0.0792930000   -0.9950820000   -1.4116800000
H      2.4528940000   -0.3367790000   -1.2810160000
H      3.2740340000   -0.7016690000    0.2563100000
H      2.6635070000   -2.0248840000   -0.7481070000
H      0.8925830000    0.4268900000    1.9247580000
