21
[/home/surajit/SURE/Arghya/publish/Data/data_workflows-master-3c7a0808d1ac395ecf485adb2c1f59b1a61b30fc/qm9_g4mp2/tmp/extracted/output/dsgdb9nsd_085891.log: Geometry 5]
C      1.9596290000    1.6747600000   -0.1319790000
C      0.5721360000    1.2454690000    0.3268130000
C     -0.6089890000    1.2911550000   -0.6780570000
C     -1.1344870000   -0.0463420000   -0.0783210000
C     -2.2535370000    0.1306520000    0.9411880000
O     -1.4454730000   -1.0761000000   -1.0004300000
C      0.2625440000   -0.2796740000    0.5834630000
C      1.1508190000   -1.2232830000   -0.1877390000
O      1.8369920000   -2.0681880000    0.3314790000
H      2.2544420000    1.1812970000   -1.0634410000
H      1.9858920000    2.7552830000   -0.3099390000
H      2.7178110000    1.4421150000    0.6232450000
H      0.3105600000    1.7968140000    1.2353220000
H     -1.2734100000    2.1594190000   -0.6478170000
H     -0.2703370000    1.1355670000   -1.7067610000
H     -3.1761780000    0.4546290000    0.4425450000
H     -2.4507700000   -0.8144120000    1.4558070000
H     -2.0017970000    0.8886210000    1.6892570000
H     -2.3252050000   -0.9113710000   -1.3565210000
H      0.2565110000   -0.6010990000    1.6273490000
H      1.1516330000   -1.0889910000   -1.2896550000
