19
[/home/surajit/SURE/Arghya/publish/Data/data_workflows-master-3c7a0808d1ac395ecf485adb2c1f59b1a61b30fc/qm9_g4mp2/tmp/extracted/output/dsgdb9nsd_105828.log: Geometry 4]
C      1.6933520000   -1.3110580000   -1.1322570000
C      0.9325440000   -1.1427750000    0.1675800000
C      1.1120000000   -0.0380640000    1.1569690000
C      1.4038890000    1.3021540000    0.4591780000
C      0.0379750000    1.1314430000   -0.2466660000
O     -0.6745730000    1.8757080000   -0.8712970000
C     -0.2407950000   -0.1941870000    0.3821130000
C     -1.6471850000   -0.6008440000    0.7405800000
O     -2.4420730000   -0.7135820000   -0.4289420000
H      1.8969570000   -0.3593940000   -1.6288260000
H      2.6529840000   -1.8086270000   -0.9547630000
H      1.1186870000   -1.9285730000   -1.8294740000
H      0.7206410000   -2.0939970000    0.6553500000
H      1.2635390000   -0.2189310000    2.2136380000
H      1.3662810000    2.1648650000    1.1309640000
H      2.3050180000    1.3716610000   -0.1553950000
H     -1.6633860000   -1.5788180000    1.2329440000
H     -2.0790230000    0.1302470000    1.4428750000
H     -2.3992070000    0.1445440000   -0.8703800000
