20
[/home/surajit/SURE/Arghya/publish/Data/data_workflows-master-3c7a0808d1ac395ecf485adb2c1f59b1a61b30fc/qm9_g4mp2/tmp/extracted/output/dsgdb9nsd_059807.log: Geometry 2]
C      2.5812460000   -0.0467910000   -1.2661040000
C      1.7400510000   -0.2523890000    0.0002230000
C      2.5815460000   -0.0447200000    1.2660090000
N      0.6545980000    0.7260660000   -0.0004450000
C     -0.5497590000    0.3470920000   -0.0001940000
O     -0.9839960000   -0.9670250000    0.0006940000
C     -2.4111800000   -0.9987820000    0.0006780000
C     -2.8305190000    0.4431230000   -0.0002970000
C     -1.7392190000    1.2076920000   -0.0007930000
H      3.4277450000   -0.7413080000   -1.2843920000
H      1.9805460000   -0.2144540000   -2.1650630000
H      2.9683800000    0.9764660000   -1.3036190000
H      1.3562100000   -1.2811950000    0.0011040000
H      2.9687040000    0.9785910000    1.3017430000
H      1.9810580000   -0.2108870000    2.1653860000
H      3.4280380000   -0.7392210000    1.2852450000
H     -2.7612520000   -1.5458620000   -0.8857630000
H     -2.7613020000   -1.5446820000    0.8878270000
H     -3.8646340000    0.7600730000   -0.0005270000
H     -1.6667120000    2.2848720000   -0.0015180000
